/batch
/config,noeldb,1     ! force off writing results to database
*get,_wallstrt,active,,time,wall
! ANSYS input file written by Workbench version 2020 R2
! File used for geometry attach: F:\ANSYS Files\TECs\TECProveOpt2022Aug\proveOptim_files\dp0\SYS-6\DM\SYS-6.scdoc
/title,proveOptim--Steady-State Thermal-Electric Conduction (G5)
*DIM,_wb_ProjectScratch_dir,string,248
_wb_ProjectScratch_dir(1) = 'F:\ANSYS Files\TECs\TECProveOpt2022Aug\proveOptim_files\dp0\SYS-6\MECH\'
*DIM,_wb_SolverFiles_dir,string,248
_wb_SolverFiles_dir(1) = 'F:\ANSYS Files\TECs\TECProveOpt2022Aug\proveOptim_files\dp0\SYS-6\MECH\'
*DIM,_wb_userfiles_dir,string,248
_wb_userfiles_dir(1) = 'F:\ANSYS Files\TECs\TECProveOpt2022Aug\proveOptim_files\user_files\'
/com,--- Data in consistent MKS units. See Solving Units in the help system for more information.
/units,MKS
/nopr
/wb,file,start              !  signify a WB generated input file
/prep7
! Turn off shape checking because checks already performed inside WB mesher.
! See help system for more information.
SHPP,OFF,,NOWARN
/nolist
etcon,set             ! allow ANSYS to choose best KEYOP's for 180x elements
/com,*********** Nodes for the whole assembly ***********
nblock,3,,25124
(1i9,3e20.9e3)
        1    -5.000000000E-05     1.425000000E-03    -2.666666667E-05
        2    -2.032879073E-19     1.425000000E-03    -2.666666667E-05
        3     7.142857143E-05     1.425000000E-03    -2.666666667E-05
        4     1.428571429E-04     1.425000000E-03    -2.658730159E-05
        5     2.142857143E-04     1.425000000E-03    -2.579365079E-05
        6     2.857142857E-04     1.425000000E-03    -2.500000000E-05
        7     3.571428571E-04     1.425000000E-03    -2.500000000E-05
        8     4.285714286E-04     1.425000000E-03    -2.500000000E-05
        9    -5.000000000E-05     1.350000000E-03    -2.666666667E-05
       10    -2.032879073E-20     1.350000000E-03    -2.666666667E-05
       11     7.142857143E-05     1.350000000E-03    -2.650793651E-05
       12     1.428571429E-04     1.350000000E-03    -2.571428571E-05
       13     2.142857143E-04     1.350000000E-03    -2.492063492E-05
       14     2.857142857E-04     1.350000000E-03    -2.412698413E-05
       15     3.571428571E-04     1.350000000E-03    -2.333333333E-05
       16     4.285714286E-04     1.350000000E-03    -2.333333333E-05
       17    -5.000000000E-05     1.275000000E-03    -2.666666667E-05
       18    -1.727947212E-19     1.275000000E-03    -2.642857143E-05
       19     7.142857143E-05     1.275000000E-03    -2.563492063E-05
       20     1.428571429E-04     1.275000000E-03    -2.484126984E-05
! ... 22821 like lines cut
/wb,elem,start            !  set before creation of elements
/com,*********** Elements for Body 1 "Solid" ***********
et,1,226,110
eblock,19,solid,,119
(19i9)
        1        1        1        1        0        0        0        0       20        0        1     4081     4103     4101     4090     4087     4214     4102     4089
    18719    18762    18741    18718    18736    18763    18739    18735    18717    18766    18761    18738
        1        1        1        1        0        0        0        0       20        0        2     4081     4090     4101     4103     4082     4091     4100     4104
    18718    18741    18762    18719    18721    18743    18760    18722    18716    18740    18759    18764
        1        1        1        1        0        0        0        0       20        0        3     4082     4091     4100     4104     4083     4092     4099     4105
    18721    18743    18760    18722    18724    18745    18758    18725    18720    18742    18757    18767
        1        1        1        1        0        0        0        0       20        0        4     4083     4092     4099     4105     4084     4093     4098     4106
    18724    18745    18758    18725    18727    18747    18756    18728    18723    18744    18755    18769
        1        1        1        1        0        0        0        0       20        0        5     4084     4093     4098     4106     4085     4094     4097     4107
    18727    18747    18756    18728    18730    18749    18754    18731    18726    18746    18753    18771
        1        1        1        1        0        0        0        0       20        0        6     4085     4094     4097     4107     4086     4095     4096     4108
    18730    18749    18754    18731    18732    18750    18752    18733    18729    18748    18751    18773
        1        1        1        1        0        0        0        0       20        0        7     3615     3632     3636     3635     4108     4096     4095     4086
    17597    17633    17640    17598    18752    18750    18732    18733    17599    17634    17642    17641
        1        1        1        1        0        0        0        0       20        0        8     4075     4109     4103     4081     4088     4213     4214     4087
    18701    18765    18719    18699    18737    19062    18736    18734    18700    18778    18766    18717
        1        1        1        1        0        0        0        0       20        0        9     4075     4081     4103     4109     4076     4082     4104     4110
    18699    18719    18765    18701    18703    18722    18768    18704    18698    18716    18764    18776
        1        1        1        1        0        0        0        0       20        0       10     4076     4082     4104     4110     4077     4083     4105     4111
    18703    18722    18768    18704    18706    18725    18770    18707    18702    18720    18767    18779
! ... 219 like lines cut
!Material Id = {51606759-D740-4C09-B041-F961D3C87E5F}
/com,*********** Elements for Body 2 "Solid" ***********
et,2,226,110
eblock,19,solid,,2160
(19i9)
        2        2        1        2        0        0        0        0       20        0      120        1     4778     4809     4823     3480     4807     4808     4837
     6053    20151    20197     6054    17274    20193    20195    17275     6052    20150    20194    20224
        2        2        1        2        0        0        0        0       20        0      121        1     4823     4809     4778      121     4824     4810     4763
     6054    20197    20151     6053     6556    20199    20121     6555     6051    20223    20196    20120
        2        2        1        2        0        0        0        0       20        0      122      121     4824     4810     4763      241     4825     4811     4748
     6556    20199    20121     6555     6939    20201    20091     6938     6554    20226    20198    20090
        2        2        1        2        0        0        0        0       20        0      123      241     4825     4811     4748      361     4826     4812     4733
     6939    20201    20091     6938     7322    20203    20061     7321     6937    20228    20200    20060
        2        2        1        2        0        0        0        0       20        0      124      361     4826     4812     4733      481     4827     4813     4718
     7322    20203    20061     7321     7705    20205    20031     7704     7320    20230    20202    20030
        2        2        1        2        0        0        0        0       20        0      125      481     4827     4813     4718      601     4828     4814     4703
     7705    20205    20031     7704     8088    20207    20001     8087     7703    20232    20204    20000
        2        2        1        2        0        0        0        0       20        0      126      601     4828     4814     4703      721     4829     4815     4688
     8088    20207    20001     8087     8471    20209    19971     8470     8086    20234    20206    19970
        2        2        1        2        0        0        0        0       20        0      127      721     4829     4815     4688      841     4830     4816     4673
     8471    20209    19971     8470     8854    20211    19941     8853     8469    20236    20208    19940
        2        2        1        2        0        0        0        0       20        0      128      841     4830     4816     4673      961     4831     4817     4658
     8854    20211    19941     8853     9237    20213    19911     9236     8852    20238    20210    19910
        2        2        1        2        0        0        0        0       20        0      129      961     4831     4817     4658     1081     4832     4818     4643
     9237    20213    19911     9236     9620    20215    19881     9619     9235    20240    20212    19880
! ... 4301 like lines cut
!Material Id = {034E61FB-2292-4E6C-92E4-FA10A5D34883}
/com,*********** Elements for Body 3 "Solid" ***********
et,3,226,110
eblock,19,solid,,224
(19i9)
        3        3        1        3        0        0        0        0       20        0     2280     4033     4963     5180     5272     4034     4962     4964     5188
    18580    20605    21106    18581    18583    20604    20609    18584    18579    20603    20608    21115
        3        3        1        3        0        0        0        0       20        0     2281     4034     4962     4964     5188     4035     4961     4965     5202
    18583    20604    20609    18584    18586    20602    20612    18587    18582    20601    20606    21114
        3        3        1        3        0        0        0        0       20        0     2282     4035     4961     4965     5202     4036     4960     4966     5216
    18586    20602    20612    18587    18589    20600    20615    18590    18585    20599    20610    21155
        3        3        1        3        0        0        0        0       20        0     2283     4036     4960     4966     5216     4037     4959     4967     5230
    18589    20600    20615    18590    18592    20598    20618    18593    18588    20597    20613    21182
        3        3        1        3        0        0        0        0       20        0     2284     4037     4959     4967     5230     4038     4958     4968     5244
    18592    20598    20618    18593    18595    20596    20621    18596    18591    20595    20616    21209
        3        3        1        3        0        0        0        0       20        0     2285     4038     4958     4968     5244     4039     4957     4969     5258
    18595    20596    20621    18596    18597    20594    20623    18598    18594    20593    20619    21236
        3        3        1        3        0        0        0        0       20        0     2286     3806     3820     3853     3852     5258     4969     4957     4039
    18026    18083    18163    18027    20623    20594    18597    18598    18028    18084    18166    18165
        3        3        1        3        0        0        0        0       20        0     2287     4964     5188     5189     4970     5180     5272     5273     5179
    20609    21113    20627    20607    21106    21275    21105    21104    20608    21115    21118    20626
        3        3        1        3        0        0        0        0       20        0     2288     4964     4970     5189     5188     4965     4971     5203     5202
    20607    20627    21113    20609    20611    20630    21154    20612    20606    20624    21117    21114
        3        3        1        3        0        0        0        0       20        0     2289     4965     4971     5203     5202     4966     4972     5217     5216
    20611    20630    21154    20612    20614    20633    21181    20615    20610    20628    21157    21155
! ... 429 like lines cut
!Material Id = {28F8B092-F602-4B4A-9669-5A816B5B3986}
/com,*********** Elements for Body 4 "Solid" ***********
et,4,226,110
eblock,19,solid,,2160
(19i9)
        4        4        1        4        0        0        0        0       20        0     2504     1681     5313     4073     5374     3600     5307     5343     5584
    11535    18693    18695    11536    17537    21359    21447    17538    11534    21358    18694    21508
        4        4        1        4        0        0        0        0       20        0     2505     1681     5374     4073     5313     1801     5389     4074     5896
    11536    18695    18693    11535    12037    18696    18697    12038    11533    21507    18692    21376
        4        4        1        4        0        0        0        0       20        0     2506     1801     5389     4074     5896     1921     5404     4072     5890
    12037    18696    18697    12038    12420    18690    18691    12421    12036    21551    18689    22534
        4        4        1        4        0        0        0        0       20        0     2507     1921     5404     4072     5890     2041     5419     4071     5884
    12420    18690    18691    12421    12803    18687    18688    12804    12419    21580    18686    22517
        4        4        1        4        0        0        0        0       20        0     2508     2041     5419     4071     5884     2161     5434     4070     5878
    12803    18687    18688    12804    13186    18684    18685    13187    12802    21609    18683    22500
        4        4        1        4        0        0        0        0       20        0     2509     2161     5434     4070     5878     2281     5449     4069     5872
    13186    18684    18685    13187    13569    18681    18682    13570    13185    21638    18680    22483
        4        4        1        4        0        0        0        0       20        0     2510     2281     5449     4069     5872     2401     5464     4068     5866
    13569    18681    18682    13570    13952    18678    18679    13953    13568    21667    18677    22466
        4        4        1        4        0        0        0        0       20        0     2511     2401     5464     4068     5866     2521     5479     4067     5860
    13952    18678    18679    13953    14335    18675    18676    14336    13951    21696    18674    22449
        4        4        1        4        0        0        0        0       20        0     2512     2521     5479     4067     5860     2641     5494     4066     5854
    14335    18675    18676    14336    14718    18672    18673    14719    14334    21725    18671    22432
        4        4        1        4        0        0        0        0       20        0     2513     2641     5494     4066     5854     2761     5509     4065     5848
    14718    18672    18673    14719    15101    18669    18670    15102    14717    21754    18668    22415
! ... 4301 like lines cut
!Material Id = {70F3D76E-8E28-46FA-8A8E-45521F4B6F9A}
/com,*********** Elements for Body 5 "Solid" ***********
et,5,226,110
eblock,19,solid,,119
(19i9)
        5        5        1        5        0        0        0        0       20        0     4664     5912     5921     6043     6020     5915     5922     6042     6026
    22593    22612    22809    22594    22599    22613    22820    22600    22592    22611    22835    22808
        5        5        1        5        0        0        0        0       20        0     4665     5910     5920     6044     6021     5912     5921     6043     6020
    22587    22610    22811    22588    22593    22612    22809    22594    22586    22609    22836    22807
        5        5        1        5        0        0        0        0       20        0     4666     5908     5919     6045     6022     5910     5920     6044     6021
    22581    22608    22813    22582    22587    22610    22811    22588    22580    22607    22837    22810
        5        5        1        5        0        0        0        0       20        0     4667     5906     5918     6046     6023     5908     5919     6045     6022
    22575    22606    22815    22576    22581    22608    22813    22582    22574    22605    22838    22812
        5        5        1        5        0        0        0        0       20        0     4668     5904     5917     6047     6024     5906     5918     6046     6023
    22569    22604    22817    22570    22575    22606    22815    22576    22568    22603    22839    22814
        5        5        1        5        0        0        0        0       20        0     4669     5902     5916     6048     6025     5904     5917     6047     6024
    22563    22602    22818    22564    22569    22604    22817    22570    22562    22601    22840    22816
        5        5        1        5        0        0        0        0       20        0     4670     4055     4059     4058     4056     6025     5902     5916     6048
    18645    18651    18647    18644    22564    22563    22602    22818    18646    18654    18652    18648
        5        5        1        5        0        0        0        0       20        0     4671     5912     6020     6014     5913     5915     6026     6027     5914
    22594    22796    22596    22591    22600    22819    22598    22597    22592    22808    22797    22595
        5        5        1        5        0        0        0        0       20        0     4672     5910     6021     6015     5911     5912     6020     6014     5913
    22588    22799    22590    22585    22594    22796    22596    22591    22586    22807    22795    22589
        5        5        1        5        0        0        0        0       20        0     4673     5908     6022     6016     5909     5910     6021     6015     5911
    22582    22801    22584    22579    22588    22799    22590    22585    22580    22810    22798    22583
! ... 219 like lines cut
!Material Id = {C6C0A42D-BE49-4119-96A2-CFE41D5AAEE7}
/wb,elem,end               !  done creating elements
/com,*********** Send User Defined Coordinate System(s) ***********
csys,0
toffst,273.15,  ! Temperature offset from absolute zero
/com,*********** Set Reference Temperature ***********
tref,22.
/wb,mat,start              !  starting to send materials
/com,*********** Send Materials ***********
MP,KXX,1,385,	! W m^-1 C^-1
MP,RSVX,1,1.67e-08,	! kg m^3 A^-2 s^-3

MP,KXX,2,1.054963,	! W m^-1 C^-1
MP,SBKX,2,0.0002171645,	! V C^-1
MP,RSVX,2,1.452857e-05,	! kg m^3 A^-2 s^-3

MP,KXX,3,385,	! W m^-1 C^-1
MP,RSVX,3,1.67e-08,	! kg m^3 A^-2 s^-3

MP,KXX,4,1.305023,	! W m^-1 C^-1
MP,SBKX,4,-0.0001985263,	! V C^-1
MP,RSVX,4,1.300436e-05,	! kg m^3 A^-2 s^-3

MP,KXX,5,385,	! W m^-1 C^-1
MP,RSVX,5,1.67e-08,	! kg m^3 A^-2 s^-3

/wb,mat,end                !  done sending materials
!************************* Model Summary ********************
!Solid,	Copper,	matid,	1
!Solid,	TECp,	matid,	2
!Solid,	Copper,	matid,	3
!Solid,	TECn,	matid,	4
!Solid,	Copper,	matid,	5
!************************* End Model Summary ********************
! get the diagonal of the bounding box. Needed later for other things
*get,_xmin,node,,mnloc,x
*get,_ymin,node,,mnloc,y
*get,_zmin,node,,mnloc,z
*get,_xmax,node,,mxloc,x
*get,_ymax,node,,mxloc,y
*get,_zmax,node,,mxloc,z
_ASMDIAG=(_xmax-_xmin)*(_xmax-_xmin)+(_ymax-_ymin)*(_ymax-_ymin)+(_zmax-_zmin)*(_zmax-_zmin)
_ASMDIAG=SQRT(_ASMDIAG)
/wb,contact,start          !  starting to send contact
/wb,contact,end            !  done creating contacts
/com,*********** Send Named Selection as Element Component ***********
esel,s,type,,2
esel,a,type,,4
cm,BODY_TOEL,elem
esel,all
CMBLOCK,TOEL    ,ELEM,     4320
(8i10)
       120       121       122       123       124       125       126       127
       128       129       130       131       132       133       134       135
       136       137       138       139       140       141       142       143
       144       145       146       147       148       149       150       151
       152       153       154       155       156       157       158       159
       160       161       162       163       164       165       166       167
       168       169       170       171       172       173       174       175
       176       177       178       179       180       181       182       183
       184       185       186       187       188       189       190       191
       192       193       194       195       196       197       198       199
       200       201       202       203       204       205       206       207
       208       209       210       211       212       213       214       215
       216       217       218       219       220       221       222       223
       224       225       226       227       228       229       230       231
       232       233       234       235       236       237       238       239
       240       241       242       243       244       245       246       247
       248       249       250       251       252       253       254       255
       256       257       258       259       260       261       262       263
       264       265       266       267       268       269       270       271
       272       273       274       275       276       277       278       279
! ... 520 like lines cut

/com,*********** Send Named Selection as Node Component ***********
CMBLOCK,TOBJ    ,NODE,      751
(8i10)
      3820      3821      3822      3823      3824      3825      3826      3827
      3828      3829      3830      3831      3832      3833      3834      3835
      3836      3837      3838      3839      3840      3841      3842      3843
      3844      3845      3846      3847      3848      3849      3850      3851
      3853      4957      4958      4959      4960      4961      4962      4963
      4964      4965      4966      4967      4968      4969      4970      4971
      4972      4973      4974      4975      4976      4977      4978      4979
      4980      4981      4982      4983      4984      4985      4986      4987
      4988      4989      4990      4991      4992      4993      4994      4995
      4996      4997      4998      4999      5000      5001      5002      5003
      5004      5005      5006      5007      5008      5009      5010      5011
      5012      5013      5014      5015      5016      5017      5018      5019
      5020      5021      5022      5023      5024      5025      5026      5027
      5028      5029      5030      5031      5032      5033      5034      5035
      5036      5037      5038      5039      5040      5041      5042      5043
      5044      5045      5046      5047      5048      5049      5050      5051
      5052      5053      5054      5055      5056      5057      5058      5059
      5060      5061      5062      5063      5064      5065      5066      5067
      5068      5069      5070      5071      5072      5073      5074      5075
      5076      5077      5078      5079      5080      5081      5082      5083
! ... 74 like lines cut
/golist
/wb,load,start             !  starting to send loads
/com,*********** Create Voltage ***********
CMBLOCK,_CM75   ,NODE,       38
(8i10)
      3632      3636      4089      4090      4091      4092      4093      4094
      4095      4096      4097      4098      4099      4100      4101      4102
     17633     17634     17642     18738     18739     18740     18741     18742
     18743     18744     18745     18746     18747     18748     18749     18750
     18751     18753     18755     18757     18759     18761
/com,*********** Create Voltage ***********
CMBLOCK,_CM77   ,NODE,       38
(8i10)
      4056      4058      5916      5917      5918      5919      5920      5921
      5922      6042      6043      6044      6045      6046      6047      6048
     18647     18648     18652     22601     22602     22603     22604     22605
     22606     22607     22608     22609     22610     22611     22612     22613
     22835     22836     22837     22838     22839     22840
/com,*********** Define Temperature Constraint ***********
CMBLOCK,_CM81   ,NODE,      812
(8i10)
      3615      3616      3617      3618      3619      3620      3621      3622
      3623      3624      3625      3626      3627      3628      3629      3630
      3631      3632      4040      4041      4042      4043      4044      4045
      4046      4047      4048      4049      4050      4051      4052      4053
      4054      4055      4056      4057      4096      4097      4098      4099
      4100      4101      4102      4103      4104      4105      4106      4107
      4108      4109      4110      4111      4112      4113      4114      4115
      4116      4117      4118      4119      4120      4121      4122      4123
      4124      4125      4126      4127      4128      4129      4130      4131
      4132      4133      4134      4135      4136      4137      4138      4139
      4140      4141      4142      4143      4144      4145      4146      4147
      4148      4149      4150      4151      4152      4153      4154      4155
      4156      4157      4158      4159      4160      4161      4162      4163
      4164      4165      4166      4167      4168      4169      4170      4171
      4172      4173      4174      4175      4176      4177      4178      4179
      4180      4181      4182      4183      4184      4185      4186      4187
      4188      4189      4190      4191      4192      4193      4194      4195
      4196      4197      4198      4199      4200      4201      4202      4203
      4204      4205      4206      4207      4208      4209      4210      4211
      4212      4213      4214      4215      4216      4217      4218      4219
! ... 82 like lines cut
/com,*********** Create "Heat Flow" ***********
et,6,152
eblock,10,,,224
(15i9)
     7957        6        6        6        0     5180     4964     4962     4963    20608    20604    20603    20605
     7958        6        6        6        0     5179     4970     4964     5180    20626    20607    20608    21104
     7959        6        6        6        0     5178     4976     4970     5179    20644    20625    20626    21102
     7960        6        6        6        0     5177     4982     4976     5178    20662    20643    20644    21100
     7961        6        6        6        0     5176     4988     4982     5177    20680    20661    20662    21098
     7962        6        6        6        0     5175     4994     4988     5176    20698    20679    20680    21096
     7963        6        6        6        0     5174     5000     4994     5175    20716    20697    20698    21094
     7964        6        6        6        0     5173     5006     5000     5174    20734    20715    20716    21092
     7965        6        6        6        0     5172     5012     5006     5173    20752    20733    20734    21090
     7966        6        6        6        0     5171     5018     5012     5172    20770    20751    20752    21088
     7967        6        6        6        0     5170     5024     5018     5171    20788    20769    20770    21086
     7968        6        6        6        0     5169     5030     5024     5170    20806    20787    20788    21084
     7969        6        6        6        0     5168     5036     5030     5169    20824    20805    20806    21082
     7970        6        6        6        0     5167     5042     5036     5168    20842    20823    20824    21080
     7971        6        6        6        0     5166     5048     5042     5167    20860    20841    20842    21079
     7972        6        6        6        0     5165     5054     5048     5166    20872    20859    20860    21078
     7973        6        6        6        0     5164     5060     5054     5165    20884    20871    20872    21077
     7974        6        6        6        0     5163     5066     5060     5164    20896    20883    20884    21076
     7975        6        6        6        0     5162     5072     5066     5163    20908    20895    20896    21075
     7976        6        6        6        0     5161     5078     5072     5162    20920    20907    20908    21074
! ... 205 like lines cut
esel,s,type,,6
keyop,6,8,1      ! include heat flux
esel,all
fcum,add                   ! add nodal forces up (needed in case have loads on the same edge,vertex)
nsel,all
nsel,all
fcum                       ! reset default on fcum command since done sending WB F loads
/gst,on,on
fini
*get,_numnode,node,0,count
*get,_numelem,elem,0,count
*get, _MAXELEMNUM, elem, 0, NUM, MAX
*get, _MAXNODENUM, node, 0, NUM, MAX
*get, _MAXELEMTYPE, etyp, 0, NUM, MAX
*get, _MAXREALCONST, real, 0, NUM, MAX
/go
/wb,load,end               !  done creating loads
/com,--- Number of total nodes = %_numnode%
/com,--- Number of contact elements = 224
/com,--- Number of spring elements = 0
/com,--- Number of bearing elements = 0
/com,--- Number of solid elements = 4782
/com,--- Number of condensed parts = 0
/com,--- Number of total elements = %_numelem%
*get,_wallbsol,active,,time,wall
/com,****************************************************************************
/com,*************************    SOLUTION       ********************************
/com,****************************************************************************
/solu
antype,0                   ! static analysis
!eqsl,sparse               ! using sparse solver which is default so no eqsl command needed
cntr,print,1               ! print out contact info and also make no initial contact an error
dmpoption,emat,no             ! Don't combine emat file for DANSYS
dmpoption,esav,no             ! Don't combine esav file for DANSYS
/com,****************************************************
/com,******************* SOLVE FOR LS 1 OF 1****************
d,_CM75,volt,0.
nsel,all
d,_CM77,volt,6.25e-002
nsel,all
/nopr
/gopr
d,_CM81,temp,25.
esel,s,type,,6
nsle
sf,all,hflux,5333
nsel,all
esel,all

tobj,TOBJ,
topo,TOEL,
pcon,TOEL,_CM77,
dcon,TOBJ,2,
scon,TOEL,

autots,on
nsub,1,10,1
time,1.
outres,erase
outres,all,none
outres,nsol,all
outres,rsol,all
outres,eangl,all
outres,veng,all
outres,fflux,all
outres,fgrad,all
outres,eheat,all
outres,cont,all
cnvtol,heat,,.001,,1.e-006    ! Program Controlled. Set MINREF equivalent of 1e-6 Watts
cnvtol,amps,,.001,,1.e-006    ! Program Controlled. Set MINREF equivalent of 1e-6 A
neqit,1000
! *********** WB SOLVE COMMAND ***********
! check interactive state
*get,ANSINTER_,active,,int
*if,ANSINTER_,ne,0,then
/eof
*endif
solve
/com *************** Write FE CONNECTORS ********* 
CEWRITE,file,ce,,INTE
/com,****************************************************
/com,*************** FINISHED SOLVE FOR LS 1 *************
*get,_wallasol,active,,time,wall
/post1
xmlo,ENCODING,ISO-8859-1
xmlo,parm
/xml,parm,xml
fini
/gopr
*get,_walldone,active,,time,wall
_preptime=(_wallbsol-_wallstrt)*3600
_solvtime=(_wallasol-_wallbsol)*3600
_posttime=(_walldone-_wallasol)*3600
_totaltim=(_walldone-_wallstrt)*3600
*get,_dlbratio,active,0,solu,dlbr
*get,_combtime,active,0,solu,comb
/com,--- Total number of nodes = %_numnode%
/com,--- Total number of elements = %_numelem%
/com,--- Element load balance ratio = %_dlbratio%
/com,--- Time to combine distributed files = %_combtime%
/wb,file,end               ! done with WB generated input
